/*--------------------------------*- C++ -*----------------------------------*\
| =========                 |                                                 |
| \\      /  F ield         | OpenFOAM: The Open Source CFD Toolbox           |
|  \\    /   O peration     | Version:  v2006                                 |
|   \\  /    A nd           | Website:  www.openfoam.com                      |
|    \\/     M anipulation  |                                                 |
\*---------------------------------------------------------------------------*/
FoamFile
{
    version     2.0;
    format      ascii;
    class       polyBoundaryMesh;
    location    "constant/polyMesh";
    object      boundary;
}
// * * * * * * * * * * * * * * * * * * * * * * * * * * * * * * * * * * * * * //

4
(
    toppatch
    {
        type            patch;
        nFaces          0;
        startFace       42278;
    }
    wall
    {
        type            wall;
        inGroups        1(wall);
        nFaces          3421;
        startFace       42278;
    }
    bottompatch
    {
        type            patch;
        nFaces          1768;
        startFace       45699;
    }
    procBoundary5to4
    {
        type            processor;
        inGroups        1(processor);
        nFaces          243;
        startFace       47467;
        matchTolerance  0.0001;
        transform       unknown;
        myProcNo        5;
        neighbProcNo    4;
    }
)

// ************************************************************************* //
