/*--------------------------------*- C++ -*----------------------------------*\
| =========                 |                                                 |
| \\      /  F ield         | OpenFOAM: The Open Source CFD Toolbox           |
|  \\    /   O peration     | Version:  v2006                                 |
|   \\  /    A nd           | Website:  www.openfoam.com                      |
|    \\/     M anipulation  |                                                 |
\*---------------------------------------------------------------------------*/
FoamFile
{
    version     2.0;
    format      ascii;
    class       polyBoundaryMesh;
    location    "constant/polyMesh";
    object      boundary;
}
// * * * * * * * * * * * * * * * * * * * * * * * * * * * * * * * * * * * * * //

5
(
    toppatch
    {
        type            patch;
        nFaces          0;
        startFace       123680;
    }
    wall
    {
        type            wall;
        inGroups        1(wall);
        nFaces          11760;
        startFace       123680;
    }
    bottompatch
    {
        type            patch;
        nFaces          0;
        startFace       135440;
    }
    procBoundary3to0
    {
        type            processor;
        inGroups        1(processor);
        nFaces          220;
        startFace       135440;
        matchTolerance  0.0001;
        transform       unknown;
        myProcNo        3;
        neighbProcNo    0;
    }
    procBoundary3to2
    {
        type            processor;
        inGroups        1(processor);
        nFaces          220;
        startFace       135660;
        matchTolerance  0.0001;
        transform       unknown;
        myProcNo        3;
        neighbProcNo    2;
    }
)

// ************************************************************************* //
