/*--------------------------------*- C++ -*----------------------------------*\
| =========                 |                                                 |
| \\      /  F ield         | OpenFOAM: The Open Source CFD Toolbox           |
|  \\    /   O peration     | Version:  v2006                                 |
|   \\  /    A nd           | Website:  www.openfoam.com                      |
|    \\/     M anipulation  |                                                 |
\*---------------------------------------------------------------------------*/
FoamFile
{
    version     2.0;
    format      ascii;
    class       polyBoundaryMesh;
    location    "constant/polyMesh";
    object      boundary;
}
// * * * * * * * * * * * * * * * * * * * * * * * * * * * * * * * * * * * * * //

5
(
    toppatch
    {
        type            patch;
        nFaces          0;
        startFace       41332;
    }
    wall
    {
        type            wall;
        inGroups        1(wall);
        nFaces          3946;
        startFace       41332;
    }
    bottompatch
    {
        type            patch;
        nFaces          0;
        startFace       45278;
    }
    procBoundary10to9
    {
        type            processor;
        inGroups        1(processor);
        nFaces          241;
        startFace       45278;
        matchTolerance  0.0001;
        transform       unknown;
        myProcNo        10;
        neighbProcNo    9;
    }
    procBoundary10to11
    {
        type            processor;
        inGroups        1(processor);
        nFaces          242;
        startFace       45519;
        matchTolerance  0.0001;
        transform       unknown;
        myProcNo        10;
        neighbProcNo    11;
    }
)

// ************************************************************************* //
