/*--------------------------------*- C++ -*----------------------------------*\
| =========                 |                                                 |
| \\      /  F ield         | OpenFOAM: The Open Source CFD Toolbox           |
|  \\    /   O peration     | Version:  v2006                                 |
|   \\  /    A nd           | Website:  www.openfoam.com                      |
|    \\/     M anipulation  |                                                 |
\*---------------------------------------------------------------------------*/
FoamFile
{
    version     2.0;
    format      ascii;
    class       polyBoundaryMesh;
    location    "constant/polyMesh";
    object      boundary;
}
// * * * * * * * * * * * * * * * * * * * * * * * * * * * * * * * * * * * * * //

4
(
    toppatch
    {
        type            patch;
        nFaces          1768;
        startFace       123728;
    }
    wall
    {
        type            wall;
        inGroups        1(wall);
        nFaces          11152;
        startFace       125496;
    }
    bottompatch
    {
        type            patch;
        nFaces          0;
        startFace       136648;
    }
    procBoundary2to3
    {
        type            processor;
        inGroups        1(processor);
        nFaces          220;
        startFace       136648;
        matchTolerance  0.0001;
        transform       unknown;
        myProcNo        2;
        neighbProcNo    3;
    }
)

// ************************************************************************* //
