/*--------------------------------*- C++ -*----------------------------------*\
| =========                 |                                                 |
| \\      /  F ield         | OpenFOAM: The Open Source CFD Toolbox           |
|  \\    /   O peration     | Version:  v2006                                 |
|   \\  /    A nd           | Website:  www.openfoam.com                      |
|    \\/     M anipulation  |                                                 |
\*---------------------------------------------------------------------------*/
FoamFile
{
    version     2.0;
    format      ascii;
    class       polyBoundaryMesh;
    location    "constant/polyMesh";
    object      boundary;
}
// * * * * * * * * * * * * * * * * * * * * * * * * * * * * * * * * * * * * * //

5
(
    toppatch
    {
        type            patch;
        nFaces          0;
        startFace       41280;
    }
    wall
    {
        type            wall;
        inGroups        1(wall);
        nFaces          3944;
        startFace       41280;
    }
    bottompatch
    {
        type            patch;
        nFaces          0;
        startFace       45224;
    }
    procBoundary9to7
    {
        type            processor;
        inGroups        1(processor);
        nFaces          263;
        startFace       45224;
        matchTolerance  0.0001;
        transform       unknown;
        myProcNo        9;
        neighbProcNo    7;
    }
    procBoundary9to10
    {
        type            processor;
        inGroups        1(processor);
        nFaces          241;
        startFace       45487;
        matchTolerance  0.0001;
        transform       unknown;
        myProcNo        9;
        neighbProcNo    10;
    }
)

// ************************************************************************* //
