/*--------------------------------*- C++ -*----------------------------------*\
| =========                 |                                                 |
| \\      /  F ield         | OpenFOAM: The Open Source CFD Toolbox           |
|  \\    /   O peration     | Version:  v2006                                 |
|   \\  /    A nd           | Website:  www.openfoam.com                      |
|    \\/     M anipulation  |                                                 |
\*---------------------------------------------------------------------------*/
FoamFile
{
    version     2.0;
    format      ascii;
    class       polyBoundaryMesh;
    location    "constant/polyMesh";
    object      boundary;
}
// * * * * * * * * * * * * * * * * * * * * * * * * * * * * * * * * * * * * * //

5
(
    toppatch
    {
        type            patch;
        nFaces          0;
        startFace       41099;
    }
    wall
    {
        type            wall;
        inGroups        1(wall);
        nFaces          3923;
        startFace       41099;
    }
    bottompatch
    {
        type            patch;
        nFaces          0;
        startFace       45022;
    }
    procBoundary3to1
    {
        type            processor;
        inGroups        1(processor);
        nFaces          240;
        startFace       45022;
        matchTolerance  0.0001;
        transform       unknown;
        myProcNo        3;
        neighbProcNo    1;
    }
    procBoundary3to4
    {
        type            processor;
        inGroups        1(processor);
        nFaces          264;
        startFace       45262;
        matchTolerance  0.0001;
        transform       unknown;
        myProcNo        3;
        neighbProcNo    4;
    }
)

// ************************************************************************* //
