/*--------------------------------*- C++ -*----------------------------------*\
| =========                 |                                                 |
| \\      /  F ield         | OpenFOAM: The Open Source CFD Toolbox           |
|  \\    /   O peration     | Version:  v2006                                 |
|   \\  /    A nd           | Website:  www.openfoam.com                      |
|    \\/     M anipulation  |                                                 |
\*---------------------------------------------------------------------------*/
FoamFile
{
    version     2.0;
    format      ascii;
    class       polyBoundaryMesh;
    location    "constant/polyMesh";
    object      boundary;
}
// * * * * * * * * * * * * * * * * * * * * * * * * * * * * * * * * * * * * * //

5
(
    toppatch
    {
        type            patch;
        nFaces          0;
        startFace       41142;
    }
    wall
    {
        type            wall;
        inGroups        1(wall);
        nFaces          3928;
        startFace       41142;
    }
    bottompatch
    {
        type            patch;
        nFaces          0;
        startFace       45070;
    }
    procBoundary0to2
    {
        type            processor;
        inGroups        1(processor);
        nFaces          267;
        startFace       45070;
        matchTolerance  0.0001;
        transform       unknown;
        myProcNo        0;
        neighbProcNo    2;
    }
    procBoundary0to6
    {
        type            processor;
        inGroups        1(processor);
        nFaces          220;
        startFace       45337;
        matchTolerance  0.0001;
        transform       unknown;
        myProcNo        0;
        neighbProcNo    6;
    }
)

// ************************************************************************* //
